<?xml version='1.0' encoding='UTF-8'?>
<routes xmlns:xsi="http://www.w3.org/2001/XMLSchema-instance" xsi:noNamespaceSchemaLocation="http://sumo.dlr.de/xsd/routes_file.xsd">
    <!--
    <personFlow id="pf1" begin="0" end="100" number="50">
        <walk from="-39.0.00" to="-1.0.00" />
    </personFlow>
    -->
    <person id="0" type="walker.pedestrian.0001" depart="0.00">
        <walk edges="-39.0.00 -0.0.00 -1.0.00"/>
    </person>
</routes>
