<?xml version='1.0' encoding='UTF-8'?>
<routes xmlns:xsi="http://www.w3.org/2001/XMLSchema-instance"
        xsi:noNamespaceSchemaLocation="http://sumo.dlr.de/xsd/routes_file.xsd">
    <vehicle id="0" type="vehicle.audi.a2" depart="0.00">
        <route edges="43.0.00 23.0.00 -52.0.00 49.0.00 7.0.00 6.0.00"/>
    </vehicle>
    <vehicle id="1" type="vehicle.ford.mustang" depart="1.00">
        <route edges="33.0.00 -39.0.00 25.0.00 -6.0.00"/>
    </vehicle>
</routes>